-------------------------------------------------------
          Amber 16 PMEMD                              2016
          -------------------------------------------------------

  [-O]verwriting output

File Assignments:

 Here is the input file:

Stage 1 heating 1 5ps 0-100K
 &cntrl
  imin=0, irest=1,ntx=5,
  nstlim=2500, dt=0.002,
  ntc=2, ntf=2,
  ntt=1, tautp=1.5,
  tempi=50.0, temp0=100.0,
  ntpr=50, ntwx=50,
  ntb=1,
  cut=10,
  /

Note: ig = -1. Setting random seed to   138454 based on wallclock time in
      microseconds.

--------------------------------------------------------------------------------
   1.  RESOURCE   USE:
--------------------------------------------------------------------------------

 getting box info from netcdf restart file
 NATOM  =   35392 NTYPES =      18 NBONH =   35041 MBONA  =     373
 NTHETH =     456 MTHETA =     571 NPHIH =     918 MPHIA  =    1199
 NHPARM =       0 NPARM  =       0 NNB   =   49415 NRES   =   11649
 NBONA  =     373 NTHETA =     571 NPHIA =    1199 NUMBND =      52
 NUMANG =     103 NPTRA  =      70 NATYP =      32 NPHB   =       1
 IFBOX  =       2 NMXRS  =      33 IFCAP =       0 NEXTRA =       0
 NCOPY  =       0

     BOX TYPE: TRUNCATED OCTAHEDRON

--------------------------------------------------------------------------------
   2.  CONTROL  DATA  FOR  THE  RUN
--------------------------------------------------------------------------------

default_name

General flags:
     imin    =       0, nmropt  =       0

Nature and format of input:
     ntx     =       5, irest   =       1, ntrx    =       1

Nature and format of output:
     ntxo    =       2, ntpr    =      50, ntrx    =       1, ntwr    =    2500
     iwrap   =       0, ntwx    =      50, ntwv    =       0, ntwe    =       0
     ioutfm  =       1, ntwprt  =       0, idecomp =       0, rbornstat=      0

Potential function:
     ntf     =       2, ntb     =       1, igb     =       0, nsnb    =      25
     ipol    =       0, gbsa    =       0, iesp    =       0
     dielc   =   1.00000, cut     =  10.00000, intdiel =   1.00000

Frozen or restrained atoms:
     ibelly  =       0, ntr     =       0

Molecular dynamics:
     nstlim  =      2500, nscm    =      1000, nrespa  =         1
     t       =   0.00000, dt      =   0.00200, vlimit  =  -1.00000

Berendsen (weak-coupling) temperature regulation:
     temp0   = 100.00000, tempi   =  50.00000, tautp   =   1.50000

SHAKE:
     ntc     =       2, jfastw  =       0
     tol     =   0.00001

Ewald parameters:
     verbose =       0, ew_type =       0, nbflag  =       1, use_pme =       1
     vdwmeth =       1, eedmeth =       1, netfrc  =       1
     Box X =   79.917   Box Y =   79.917   Box Z =   79.917
     Alpha =  109.471   Beta  =  109.471   Gamma =  109.471
     NFFT1 =   80       NFFT2 =   80       NFFT3 =   80
     Cutoff=   10.000   Tol   =0.100E-04
     Ewald Coefficient =  0.27511
     Interpolation order =    4

--------------------------------------------------------------------------------
   3.  ATOMIC COORDINATES AND VELOCITIES
--------------------------------------------------------------------------------

default_name
 begin time read from input coords =     5.000 ps

 Number of triangulated 3-point waters found:    11616

     Sum of charges from parm topology file =   0.00000013
     Forcing neutrality...

--------------------------------------------------------------------------------
   4.  RESULTS
 NSTEP =       50   TIME(PS) =       5.100  TEMP(K) =    49.41  PRESS =     0.0
 Etot   =   -137921.2608  EKtot   =      3492.1340  EPtot      =   -141413.3948
 BOND   =        29.2736  ANGLE   =       123.5178  DIHED      =       444.8989
 1-4 NB =       132.1138  1-4 EEL =     -2070.2151  VDWAALS    =     24887.5699
 EELEC  =   -164960.5538  EHBOND  =         0.0000  RESTRAINT  =         0.0000
 ------------------------------------------------------------------------------

      A V E R A G E S   O V E R      50 S T E P S

 NSTEP =     2500   TIME(PS) =      10.000  TEMP(K) =    76.23  PRESS =     0.0
 Etot   =   -134418.7244  EKtot   =      5387.6593  EPtot      =   -139806.3837
 BOND   =        33.9647  ANGLE   =       137.6555  DIHED      =       440.7642
 1-4 NB =       132.5463  1-4 EEL =     -2069.7909  VDWAALS    =     24530.4114
 EELEC  =   -163011.9348  EHBOND  =         0.0000  RESTRAINT  =         0.0000
 ------------------------------------------------------------------------------

      R M S  F L U C T U A T I O N S

 NSTEP =     2500   TIME(PS) =      10.000  TEMP(K) =    12.52  PRESS =     0.0
 Etot   =      1579.5211  EKtot   =       884.6691  EPtot      =       697.2360
 BOND   =         3.3470  ANGLE   =         6.7285  DIHED      =         4.1394
 1-4 NB =         1.5397  1-4 EEL =         5.9752  VDWAALS    =       183.2385
 EELEC  =       851.6286  EHBOND  =         0.0000  RESTRAINT  =         0.0000
 ------------------------------------------------------------------------------
