-------------------------------------------------------
          Amber 16 PMEMD                              2016
          -------------------------------------------------------

  [-O]verwriting output

File Assignments:

 Here is the input file:

Stage 2 equilibration 1 0-5ns
 &cntrl
  imin=0, irest=1, ntx=5,
  nstlim=10000, dt=0.002,
  ntc=2, ntf=2,
  ntt=1, tautp=1.0,
  tempi=310.0, temp0=310.0,
  ntpr=50, ntwx=50,
  ntb=1,
  cut=10,
 /

Note: ig = -1. Setting random seed to   547525 based on wallclock time in
      microseconds.

--------------------------------------------------------------------------------
   1.  RESOURCE   USE:
--------------------------------------------------------------------------------

 getting box info from netcdf restart file
 NATOM  =   35392 NTYPES =      18 NBONH =   35041 MBONA  =     373
 NTHETH =     456 MTHETA =     571 NPHIH =     918 MPHIA  =    1199
 NHPARM =       0 NPARM  =       0 NNB   =   49415 NRES   =   11649
 NBONA  =     373 NTHETA =     571 NPHIA =    1199 NUMBND =      52
 NUMANG =     103 NPTRA  =      70 NATYP =      32 NPHB   =       1
 IFBOX  =       2 NMXRS  =      33 IFCAP =       0 NEXTRA =       0
 NCOPY  =       0

     BOX TYPE: TRUNCATED OCTAHEDRON

--------------------------------------------------------------------------------
   2.  CONTROL  DATA  FOR  THE  RUN
--------------------------------------------------------------------------------

default_name

General flags:
     imin    =       0, nmropt  =       0

Nature and format of input:
     ntx     =       5, irest   =       1, ntrx    =       1

Nature and format of output:
     ntxo    =       2, ntpr    =      50, ntrx    =       1, ntwr    =   10000
     iwrap   =       0, ntwx    =      50, ntwv    =       0, ntwe    =       0
     ioutfm  =       1, ntwprt  =       0, idecomp =       0, rbornstat=      0

Potential function:
     ntf     =       2, ntb     =       1, igb     =       0, nsnb    =      25
     ipol    =       0, gbsa    =       0, iesp    =       0
     dielc   =   1.00000, cut     =  10.00000, intdiel =   1.00000

Frozen or restrained atoms:
     ibelly  =       0, ntr     =       0

Molecular dynamics:
     nstlim  =     10000, nscm    =      1000, nrespa  =         1
     t       =   0.00000, dt      =   0.00200, vlimit  =  -1.00000

Berendsen (weak-coupling) temperature regulation:
     temp0   = 310.00000, tempi   = 310.00000, tautp   =   1.00000

SHAKE:
     ntc     =       2, jfastw  =       0
     tol     =   0.00001

Ewald parameters:
     verbose =       0, ew_type =       0, nbflag  =       1, use_pme =       1
     vdwmeth =       1, eedmeth =       1, netfrc  =       1
     Box X =   79.917   Box Y =   79.917   Box Z =   79.917
     Alpha =  109.471   Beta  =  109.471   Gamma =  109.471
     NFFT1 =   80       NFFT2 =   80       NFFT3 =   80
     Cutoff=   10.000   Tol   =0.100E-04
     Ewald Coefficient =  0.27511
     Interpolation order =    4

--------------------------------------------------------------------------------
   3.  ATOMIC COORDINATES AND VELOCITIES
--------------------------------------------------------------------------------

default_name
 begin time read from input coords =    40.000 ps

 Number of triangulated 3-point waters found:    11616

     Sum of charges from parm topology file =   0.00000013
     Forcing neutrality...

--------------------------------------------------------------------------------
   4.  RESULTS
 NSTEP =       50   TIME(PS) =      40.100  TEMP(K) =   303.68  PRESS =     0.0
 Etot   =    -91668.4819  EKtot   =     21463.3066  EPtot      =   -113131.7886
 BOND   =       149.7719  ANGLE   =       301.4246  DIHED      =       491.9156
 1-4 NB =       133.9627  1-4 EEL =     -2065.8083  VDWAALS    =     15221.7672
 EELEC  =   -127364.8223  EHBOND  =         0.0000  RESTRAINT  =         0.0000
 ------------------------------------------------------------------------------

      A V E R A G E S   O V E R     200 S T E P S

 NSTEP =    10000   TIME(PS) =      60.000  TEMP(K) =   309.06  PRESS =     0.0
 Etot   =    -90604.2499  EKtot   =     21843.5773  EPtot      =   -112447.8272
 BOND   =       135.2086  ANGLE   =       301.5686  DIHED      =       489.5515
 1-4 NB =       143.9500  1-4 EEL =     -2058.2787  VDWAALS    =     15012.4493
 EELEC  =   -126472.2764  EHBOND  =         0.0000  RESTRAINT  =         0.0000
 ------------------------------------------------------------------------------

      R M S  F L U C T U A T I O N S

 NSTEP =    10000   TIME(PS) =      60.000  TEMP(K) =     1.79  PRESS =     0.0
 Etot   =       307.8464  EKtot   =       126.4729  EPtot      =       234.4401
 BOND   =         8.4411  ANGLE   =        12.0756  DIHED      =         7.1044
 1-4 NB =         4.3407  1-4 EEL =        14.2553  VDWAALS    =       179.4394
 EELEC  =       343.8633  EHBOND  =         0.0000  RESTRAINT  =         0.0000
 ------------------------------------------------------------------------------
