-------------------------------------------------------
          Amber 16 PMEMD                              2016
          -------------------------------------------------------

  [-O]verwriting output

File Assignments:

 Here is the input file:

Stage 2 equilibration 1 0-5ns
 &cntrl
  imin=0, irest=1, ntx=5,
  nstlim=2500, dt=0.002,
  ntc=2, ntf=2,
  ntt=1, tautp=1.5,
  tempi=150.0, temp0=200.0,
  ntpr=50, ntwx=50,
  ntb=1,
  cut=10,
 /

Note: ig = -1. Setting random seed to   439891 based on wallclock time in
      microseconds.

--------------------------------------------------------------------------------
   1.  RESOURCE   USE:
--------------------------------------------------------------------------------

 getting box info from netcdf restart file
 NATOM  =   35979 NTYPES =      18 NBONH =   35256 MBONA  =     774
 NTHETH =     898 MTHETA =    1191 NPHIH =    1825 MPHIA  =    2463
 NHPARM =       0 NPARM  =       0 NNB   =   52494 NRES   =   11691
 NBONA  =     774 NTHETA =    1191 NPHIA =    2463 NUMBND =      61
 NUMANG =     127 NPTRA  =      75 NATYP =      34 NPHB   =       1
 IFBOX  =       2 NMXRS  =      33 IFCAP =       0 NEXTRA =       0
 NCOPY  =       0

     BOX TYPE: TRUNCATED OCTAHEDRON

--------------------------------------------------------------------------------
   2.  CONTROL  DATA  FOR  THE  RUN
--------------------------------------------------------------------------------

default_name

General flags:
     imin    =       0, nmropt  =       0

Nature and format of input:
     ntx     =       5, irest   =       1, ntrx    =       1

Nature and format of output:
     ntxo    =       2, ntpr    =      50, ntrx    =       1, ntwr    =    2500
     iwrap   =       0, ntwx    =      50, ntwv    =       0, ntwe    =       0
     ioutfm  =       1, ntwprt  =       0, idecomp =       0, rbornstat=      0

Potential function:
     ntf     =       2, ntb     =       1, igb     =       0, nsnb    =      25
     ipol    =       0, gbsa    =       0, iesp    =       0
     dielc   =   1.00000, cut     =  10.00000, intdiel =   1.00000

Frozen or restrained atoms:
     ibelly  =       0, ntr     =       0

Molecular dynamics:
     nstlim  =      2500, nscm    =      1000, nrespa  =         1
     t       =   0.00000, dt      =   0.00200, vlimit  =  -1.00000

Berendsen (weak-coupling) temperature regulation:
     temp0   = 200.00000, tempi   = 150.00000, tautp   =   1.50000

SHAKE:
     ntc     =       2, jfastw  =       0
     tol     =   0.00001

Ewald parameters:
     verbose =       0, ew_type =       0, nbflag  =       1, use_pme =       1
     vdwmeth =       1, eedmeth =       1, netfrc  =       1
     Box X =   80.755   Box Y =   80.755   Box Z =   80.755
     Alpha =  109.471   Beta  =  109.471   Gamma =  109.471
     NFFT1 =   84       NFFT2 =   84       NFFT3 =   84
     Cutoff=   10.000   Tol   =0.100E-04
     Ewald Coefficient =  0.27511
     Interpolation order =    4

--------------------------------------------------------------------------------
   3.  ATOMIC COORDINATES AND VELOCITIES
--------------------------------------------------------------------------------

default_name
 begin time read from input coords =    15.000 ps

 Number of triangulated 3-point waters found:    11625

     Sum of charges from parm topology file =   0.00000020
     Forcing neutrality...

--------------------------------------------------------------------------------
   4.  RESULTS
 NSTEP =       50   TIME(PS) =      15.100  TEMP(K) =   141.41  PRESS =     0.0
 Etot   =   -130856.3388  EKtot   =     10211.8418  EPtot      =   -141068.1806
 BOND   =       107.3153  ANGLE   =       288.4553  DIHED      =      1008.4641
 1-4 NB =       277.6739  1-4 EEL =     -4800.6123  VDWAALS    =     23152.9571
 EELEC  =   -161102.4339  EHBOND  =         0.0000  RESTRAINT  =         0.0000
 ------------------------------------------------------------------------------

      A V E R A G E S   O V E R      50 S T E P S

 NSTEP =     2500   TIME(PS) =      20.000  TEMP(K) =   168.85  PRESS =     0.0
 Etot   =   -126366.7102  EKtot   =     12192.7624  EPtot      =   -138559.4726
 BOND   =       134.7634  ANGLE   =       326.2757  DIHED      =      1009.1830
 1-4 NB =       277.4001  1-4 EEL =     -4791.6941  VDWAALS    =     22617.6756
 EELEC  =   -158133.0764  EHBOND  =         0.0000  RESTRAINT  =         0.0000
 ------------------------------------------------------------------------------

      R M S  F L U C T U A T I O N S

 NSTEP =     2500   TIME(PS) =      20.000  TEMP(K) =    13.27  PRESS =     0.0
 Etot   =      2116.9594  EKtot   =       958.5442  EPtot      =      1160.2358
 BOND   =        12.8372  ANGLE   =        20.3886  DIHED      =         7.7738
 1-4 NB =         4.3621  1-4 EEL =        12.1934  VDWAALS    =       392.3871
 EELEC  =      1504.7319  EHBOND  =         0.0000  RESTRAINT  =         0.0000
 ------------------------------------------------------------------------------
