-------------------------------------------------------
          Amber 16 PMEMD                              2016
          -------------------------------------------------------

  [-O]verwriting output

File Assignments:

 Here is the input file:

Stage 2 equilibration 1 0-5ns
 &cntrl
  imin=0, irest=1, ntx=5,
  nstlim=2500, dt=0.002,
  ntc=2, ntf=2,
  ntt=1, tautp=1.5,
  tempi=100.0, temp0=150.0,
  ntpr=50, ntwx=50,
  ntb=1,
  cut=10,
 /

Note: ig = -1. Setting random seed to   680367 based on wallclock time in
      microseconds.

--------------------------------------------------------------------------------
   1.  RESOURCE   USE:
--------------------------------------------------------------------------------

 getting box info from netcdf restart file
 NATOM  =   35940 NTYPES =      18 NBONH =   35217 MBONA  =     774
 NTHETH =     898 MTHETA =    1191 NPHIH =    1825 MPHIA  =    2463
 NHPARM =       0 NPARM  =       0 NNB   =   52442 NRES   =   11678
 NBONA  =     774 NTHETA =    1191 NPHIA =    2463 NUMBND =      61
 NUMANG =     127 NPTRA  =      75 NATYP =      34 NPHB   =       1
 IFBOX  =       2 NMXRS  =      33 IFCAP =       0 NEXTRA =       0
 NCOPY  =       0

     BOX TYPE: TRUNCATED OCTAHEDRON

--------------------------------------------------------------------------------
   2.  CONTROL  DATA  FOR  THE  RUN
--------------------------------------------------------------------------------

default_name

General flags:
     imin    =       0, nmropt  =       0

Nature and format of input:
     ntx     =       5, irest   =       1, ntrx    =       1

Nature and format of output:
     ntxo    =       2, ntpr    =      50, ntrx    =       1, ntwr    =    2500
     iwrap   =       0, ntwx    =      50, ntwv    =       0, ntwe    =       0
     ioutfm  =       1, ntwprt  =       0, idecomp =       0, rbornstat=      0

Potential function:
     ntf     =       2, ntb     =       1, igb     =       0, nsnb    =      25
     ipol    =       0, gbsa    =       0, iesp    =       0
     dielc   =   1.00000, cut     =  10.00000, intdiel =   1.00000

Frozen or restrained atoms:
     ibelly  =       0, ntr     =       0

Molecular dynamics:
     nstlim  =      2500, nscm    =      1000, nrespa  =         1
     t       =   0.00000, dt      =   0.00200, vlimit  =  -1.00000

Berendsen (weak-coupling) temperature regulation:
     temp0   = 150.00000, tempi   = 100.00000, tautp   =   1.50000

SHAKE:
     ntc     =       2, jfastw  =       0
     tol     =   0.00001

Ewald parameters:
     verbose =       0, ew_type =       0, nbflag  =       1, use_pme =       1
     vdwmeth =       1, eedmeth =       1, netfrc  =       1
     Box X =   80.723   Box Y =   80.723   Box Z =   80.723
     Alpha =  109.471   Beta  =  109.471   Gamma =  109.471
     NFFT1 =   84       NFFT2 =   84       NFFT3 =   84
     Cutoff=   10.000   Tol   =0.100E-04
     Ewald Coefficient =  0.27511
     Interpolation order =    4

--------------------------------------------------------------------------------
   3.  ATOMIC COORDINATES AND VELOCITIES
--------------------------------------------------------------------------------

default_name
 begin time read from input coords =    10.000 ps

 Number of triangulated 3-point waters found:    11612

     Sum of charges from parm topology file =   0.00000020
     Forcing neutrality...

--------------------------------------------------------------------------------
   4.  RESULTS
 NSTEP =       50   TIME(PS) =      10.100  TEMP(K) =    94.82  PRESS =     0.0
 Etot   =   -137466.5021  EKtot   =      6840.0991  EPtot      =   -144306.6012
 BOND   =        83.3289  ANGLE   =       233.6224  DIHED      =       980.2332
 1-4 NB =       267.4272  1-4 EEL =     -4808.9930  VDWAALS    =     24139.2332
 EELEC  =   -165201.4531  EHBOND  =         0.0000  RESTRAINT  =         0.0000
 ------------------------------------------------------------------------------

      A V E R A G E S   O V E R      50 S T E P S

 NSTEP =     2500   TIME(PS) =      15.000  TEMP(K) =   122.29  PRESS =     0.0
 Etot   =   -133391.2741  EKtot   =      8821.6659  EPtot      =   -142212.9400
 BOND   =        98.3362  ANGLE   =       257.8355  DIHED      =       994.4863
 1-4 NB =       268.7604  1-4 EEL =     -4806.2053  VDWAALS    =     23550.9127
 EELEC  =   -162577.0658  EHBOND  =         0.0000  RESTRAINT  =         0.0000
 ------------------------------------------------------------------------------

      R M S  F L U C T U A T I O N S

 NSTEP =     2500   TIME(PS) =      15.000  TEMP(K) =    13.03  PRESS =     0.0
 Etot   =      1882.2137  EKtot   =       940.2693  EPtot      =       943.3474
 BOND   =        10.3645  ANGLE   =        16.6034  DIHED      =        10.3482
 1-4 NB =         3.6570  1-4 EEL =        10.1844  VDWAALS    =       298.7436
 EELEC  =      1187.0876  EHBOND  =         0.0000  RESTRAINT  =         0.0000
 ------------------------------------------------------------------------------
