-------------------------------------------------------
          Amber 16 PMEMD                              2016
          -------------------------------------------------------

  [-O]verwriting output

File Assignments:

 Here is the input file:

Stage 2 equilibration 1 0-5ns
 &cntrl
  imin=0, irest=1, ntx=5,
  nstlim=4000, dt=0.002,
  ntc=2, ntf=2,
  ntt=1, tautp=1.5,
  tempi=200.0, temp0=255.0,
  ntpr=50, ntwx=50,
  ntb=1,
  cut=10,
 /

Note: ig = -1. Setting random seed to   322878 based on wallclock time in
      microseconds.

--------------------------------------------------------------------------------
   1.  RESOURCE   USE:
--------------------------------------------------------------------------------

 getting box info from netcdf restart file
 NATOM  =   31353 NTYPES =      18 NBONH =   30630 MBONA  =     774
 NTHETH =     892 MTHETA =    1191 NPHIH =    1828 MPHIA  =    2451
 NHPARM =       0 NPARM  =       0 NNB   =   46321 NRES   =   10150
 NBONA  =     774 NTHETA =    1191 NPHIA =    2451 NUMBND =      61
 NUMANG =     127 NPTRA  =      75 NATYP =      34 NPHB   =       1
 IFBOX  =       2 NMXRS  =      33 IFCAP =       0 NEXTRA =       0
 NCOPY  =       0

     BOX TYPE: TRUNCATED OCTAHEDRON

--------------------------------------------------------------------------------
   2.  CONTROL  DATA  FOR  THE  RUN
--------------------------------------------------------------------------------

default_name

General flags:
     imin    =       0, nmropt  =       0

Nature and format of input:
     ntx     =       5, irest   =       1, ntrx    =       1

Nature and format of output:
     ntxo    =       2, ntpr    =      50, ntrx    =       1, ntwr    =    4000
     iwrap   =       0, ntwx    =      50, ntwv    =       0, ntwe    =       0
     ioutfm  =       1, ntwprt  =       0, idecomp =       0, rbornstat=      0

Potential function:
     ntf     =       2, ntb     =       1, igb     =       0, nsnb    =      25
     ipol    =       0, gbsa    =       0, iesp    =       0
     dielc   =   1.00000, cut     =  10.00000, intdiel =   1.00000

Frozen or restrained atoms:
     ibelly  =       0, ntr     =       0

Molecular dynamics:
     nstlim  =      4000, nscm    =      1000, nrespa  =         1
     t       =   0.00000, dt      =   0.00200, vlimit  =  -1.00000

Berendsen (weak-coupling) temperature regulation:
     temp0   = 255.00000, tempi   = 200.00000, tautp   =   1.50000

SHAKE:
     ntc     =       2, jfastw  =       0
     tol     =   0.00001

Ewald parameters:
     verbose =       0, ew_type =       0, nbflag  =       1, use_pme =       1
     vdwmeth =       1, eedmeth =       1, netfrc  =       1
     Box X =   77.456   Box Y =   77.456   Box Z =   77.456
     Alpha =  109.471   Beta  =  109.471   Gamma =  109.471
     NFFT1 =   80       NFFT2 =   80       NFFT3 =   80
     Cutoff=   10.000   Tol   =0.100E-04
     Ewald Coefficient =  0.27511
     Interpolation order =    4

--------------------------------------------------------------------------------
   3.  ATOMIC COORDINATES AND VELOCITIES
--------------------------------------------------------------------------------

default_name
 begin time read from input coords =    20.000 ps

 Number of triangulated 3-point waters found:    10084

     Sum of charges from parm topology file =   0.00000018
     Forcing neutrality...

--------------------------------------------------------------------------------
   4.  RESULTS
 NSTEP =       50   TIME(PS) =      20.100  TEMP(K) =   187.44  PRESS =     0.0
 Etot   =   -107554.2114  EKtot   =     11812.2959  EPtot      =   -119366.5073
 BOND   =       148.1419  ANGLE   =       361.6052  DIHED      =       960.4279
 1-4 NB =       275.6812  1-4 EEL =     -3893.4278  VDWAALS    =     18680.5475
 EELEC  =   -135899.4832  EHBOND  =         0.0000  RESTRAINT  =         0.0000
 ------------------------------------------------------------------------------

      A V E R A G E S   O V E R      80 S T E P S

 NSTEP =     4000   TIME(PS) =      28.000  TEMP(K) =   223.86  PRESS =     0.0
 Etot   =   -101112.2180  EKtot   =     14107.4975  EPtot      =   -115219.7155
 BOND   =       190.3933  ANGLE   =       434.2088  DIHED      =       971.3714
 1-4 NB =       283.6150  1-4 EEL =     -3913.2599  VDWAALS    =     17117.5475
 EELEC  =   -130303.5916  EHBOND  =         0.0000  RESTRAINT  =         0.0000
 ------------------------------------------------------------------------------

      R M S  F L U C T U A T I O N S

 NSTEP =     4000   TIME(PS) =      28.000  TEMP(K) =    14.86  PRESS =     0.0
 Etot   =      2893.9683  EKtot   =       936.2177  EPtot      =      1964.9779
 BOND   =        23.1939  ANGLE   =        33.3265  DIHED      =         8.6681
 1-4 NB =         5.2612  1-4 EEL =        14.3900  VDWAALS    =       833.4613
 EELEC  =      2734.1132  EHBOND  =         0.0000  RESTRAINT  =         0.0000
 ------------------------------------------------------------------------------
