-------------------------------------------------------
          Amber 16 PMEMD                              2016
          -------------------------------------------------------

  [-O]verwriting output

File Assignments:

 Here is the input file:

Stage 2 equilibration 1 0-5ns
 &cntrl
  imin=0, irest=1, ntx=5,
  nstlim=2500, dt=0.002,
  ntc=2, ntf=2,
  ntt=1, tautp=1.5,
  tempi=150.0, temp0=200.0,
  ntpr=50, ntwx=50,
  ntb=1,
  cut=10,
 /

Note: ig = -1. Setting random seed to    67340 based on wallclock time in
      microseconds.

--------------------------------------------------------------------------------
   1.  RESOURCE   USE:
--------------------------------------------------------------------------------

 getting box info from netcdf restart file
 NATOM  =   31731 NTYPES =      18 NBONH =   31008 MBONA  =     774
 NTHETH =     907 MTHETA =    1191 NPHIH =    1834 MPHIA  =    2469
 NHPARM =       0 NPARM  =       0 NNB   =   46844 NRES   =   10274
 NBONA  =     774 NTHETA =    1191 NPHIA =    2469 NUMBND =      61
 NUMANG =     127 NPTRA  =      75 NATYP =      34 NPHB   =       1
 IFBOX  =       2 NMXRS  =      33 IFCAP =       0 NEXTRA =       0
 NCOPY  =       0

     BOX TYPE: TRUNCATED OCTAHEDRON

--------------------------------------------------------------------------------
   2.  CONTROL  DATA  FOR  THE  RUN
--------------------------------------------------------------------------------

default_name

General flags:
     imin    =       0, nmropt  =       0

Nature and format of input:
     ntx     =       5, irest   =       1, ntrx    =       1

Nature and format of output:
     ntxo    =       2, ntpr    =      50, ntrx    =       1, ntwr    =    2500
     iwrap   =       0, ntwx    =      50, ntwv    =       0, ntwe    =       0
     ioutfm  =       1, ntwprt  =       0, idecomp =       0, rbornstat=      0

Potential function:
     ntf     =       2, ntb     =       1, igb     =       0, nsnb    =      25
     ipol    =       0, gbsa    =       0, iesp    =       0
     dielc   =   1.00000, cut     =  10.00000, intdiel =   1.00000

Frozen or restrained atoms:
     ibelly  =       0, ntr     =       0

Molecular dynamics:
     nstlim  =      2500, nscm    =      1000, nrespa  =         1
     t       =   0.00000, dt      =   0.00200, vlimit  =  -1.00000

Berendsen (weak-coupling) temperature regulation:
     temp0   = 200.00000, tempi   = 150.00000, tautp   =   1.50000

SHAKE:
     ntc     =       2, jfastw  =       0
     tol     =   0.00001

Ewald parameters:
     verbose =       0, ew_type =       0, nbflag  =       1, use_pme =       1
     vdwmeth =       1, eedmeth =       1, netfrc  =       1
     Box X =   77.699   Box Y =   77.699   Box Z =   77.699
     Alpha =  109.471   Beta  =  109.471   Gamma =  109.471
     NFFT1 =   80       NFFT2 =   80       NFFT3 =   80
     Cutoff=   10.000   Tol   =0.100E-04
     Ewald Coefficient =  0.27511
     Interpolation order =    4

--------------------------------------------------------------------------------
   3.  ATOMIC COORDINATES AND VELOCITIES
--------------------------------------------------------------------------------

default_name
 begin time read from input coords =    15.000 ps

 Number of triangulated 3-point waters found:    10208

     Sum of charges from parm topology file =   0.00000019
     Forcing neutrality...

--------------------------------------------------------------------------------
   4.  RESULTS
 NSTEP =       50   TIME(PS) =      15.100  TEMP(K) =   140.81  PRESS =     0.0
 Etot   =   -115447.9120  EKtot   =      8979.6230  EPtot      =   -124427.5350
 BOND   =       113.2345  ANGLE   =       281.4435  DIHED      =       997.6134
 1-4 NB =       272.3820  1-4 EEL =     -3743.5387  VDWAALS    =     20197.3314
 EELEC  =   -142546.0012  EHBOND  =         0.0000  RESTRAINT  =         0.0000
 ------------------------------------------------------------------------------

      A V E R A G E S   O V E R      50 S T E P S

 NSTEP =     2500   TIME(PS) =      20.000  TEMP(K) =   169.23  PRESS =     0.0
 Etot   =   -111557.4533  EKtot   =     10791.7920  EPtot      =   -122349.2453
 BOND   =       128.8800  ANGLE   =       331.2894  DIHED      =      1011.5750
 1-4 NB =       276.4663  1-4 EEL =     -3757.2971  VDWAALS    =     19582.8147
 EELEC  =   -139922.9736  EHBOND  =         0.0000  RESTRAINT  =         0.0000
 ------------------------------------------------------------------------------

      R M S  F L U C T U A T I O N S

 NSTEP =     2500   TIME(PS) =      20.000  TEMP(K) =    13.03  PRESS =     0.0
 Etot   =      1835.1879  EKtot   =       831.0614  EPtot      =      1006.3925
 BOND   =        12.8695  ANGLE   =        22.6294  DIHED      =         8.3954
 1-4 NB =         5.5071  1-4 EEL =        12.6165  VDWAALS    =       342.7755
 EELEC  =      1292.3283  EHBOND  =         0.0000  RESTRAINT  =         0.0000
 ------------------------------------------------------------------------------
