-------------------------------------------------------
          Amber 16 PMEMD                              2016
          -------------------------------------------------------

  [-O]verwriting output

File Assignments:

 Here is the input file:

Stage 1 heating 1 5ps 0-100K
 &cntrl
  imin=0, irest=1,ntx=5,
  nstlim=2500, dt=0.002,
  ntc=2, ntf=2,
  ntt=1, tautp=1.5,
  tempi=50.0, temp0=100.0,
  ntpr=50, ntwx=50,
  ntb=1,
  cut=10,
  /

Note: ig = -1. Setting random seed to   147537 based on wallclock time in
      microseconds.

--------------------------------------------------------------------------------
   1.  RESOURCE   USE:
--------------------------------------------------------------------------------

 getting box info from netcdf restart file
 NATOM  =   30759 NTYPES =      18 NBONH =   30024 MBONA  =     785
 NTHETH =     885 MTHETA =    1211 NPHIH =    1882 MPHIA  =    2433
 NHPARM =       0 NPARM  =       0 NNB   =   45590 NRES   =    9945
 NBONA  =     785 NTHETA =    1211 NPHIA =    2433 NUMBND =      73
 NUMANG =     152 NPTRA  =      87 NATYP =      37 NPHB   =       1
 IFBOX  =       2 NMXRS  =      35 IFCAP =       0 NEXTRA =       0
 NCOPY  =       0

     BOX TYPE: TRUNCATED OCTAHEDRON

--------------------------------------------------------------------------------
   2.  CONTROL  DATA  FOR  THE  RUN
--------------------------------------------------------------------------------

default_name

General flags:
     imin    =       0, nmropt  =       0

Nature and format of input:
     ntx     =       5, irest   =       1, ntrx    =       1

Nature and format of output:
     ntxo    =       2, ntpr    =      50, ntrx    =       1, ntwr    =    2500
     iwrap   =       0, ntwx    =      50, ntwv    =       0, ntwe    =       0
     ioutfm  =       1, ntwprt  =       0, idecomp =       0, rbornstat=      0

Potential function:
     ntf     =       2, ntb     =       1, igb     =       0, nsnb    =      25
     ipol    =       0, gbsa    =       0, iesp    =       0
     dielc   =   1.00000, cut     =  10.00000, intdiel =   1.00000

Frozen or restrained atoms:
     ibelly  =       0, ntr     =       0

Molecular dynamics:
     nstlim  =      2500, nscm    =      1000, nrespa  =         1
     t       =   0.00000, dt      =   0.00200, vlimit  =  -1.00000

Berendsen (weak-coupling) temperature regulation:
     temp0   = 100.00000, tempi   =  50.00000, tautp   =   1.50000

SHAKE:
     ntc     =       2, jfastw  =       0
     tol     =   0.00001

Ewald parameters:
     verbose =       0, ew_type =       0, nbflag  =       1, use_pme =       1
     vdwmeth =       1, eedmeth =       1, netfrc  =       1
     Box X =   76.982   Box Y =   76.982   Box Z =   76.982
     Alpha =  109.471   Beta  =  109.471   Gamma =  109.471
     NFFT1 =   80       NFFT2 =   80       NFFT3 =   80
     Cutoff=   10.000   Tol   =0.100E-04
     Ewald Coefficient =  0.27511
     Interpolation order =    4

--------------------------------------------------------------------------------
   3.  ATOMIC COORDINATES AND VELOCITIES
--------------------------------------------------------------------------------

default_name
 begin time read from input coords =     5.000 ps

 Number of triangulated 3-point waters found:     9880

     Sum of charges from parm topology file =   0.30810012
     Assuming uniform neutralizing plasma

--------------------------------------------------------------------------------
   4.  RESULTS
 NSTEP =       50   TIME(PS) =       5.100  TEMP(K) =    50.12  PRESS =     0.0
 Etot   =   -123132.8918  EKtot   =      3099.9707  EPtot      =   -126232.8625
 BOND   =        66.8779  ANGLE   =       211.0516  DIHED      =       849.4653
 1-4 NB =       277.3492  1-4 EEL =     -4443.4070  VDWAALS    =     21071.0394
 EELEC  =   -144265.2389  EHBOND  =         0.0000  RESTRAINT  =         0.0000
 ------------------------------------------------------------------------------

      A V E R A G E S   O V E R      50 S T E P S

 NSTEP =     2500   TIME(PS) =      10.000  TEMP(K) =    76.75  PRESS =     0.0
 Etot   =   -120128.0951  EKtot   =      4747.2750  EPtot      =   -124875.3700
 BOND   =        75.3078  ANGLE   =       228.3247  DIHED      =       854.7764
 1-4 NB =       277.8014  1-4 EEL =     -4429.8578  VDWAALS    =     20777.4053
 EELEC  =   -142659.1278  EHBOND  =         0.0000  RESTRAINT  =         0.0000
 ------------------------------------------------------------------------------

      R M S  F L U C T U A T I O N S

 NSTEP =     2500   TIME(PS) =      10.000  TEMP(K) =    12.29  PRESS =     0.0
 Etot   =      1352.0872  EKtot   =       759.8973  EPtot      =       593.6723
 BOND   =         6.4142  ANGLE   =        10.2433  DIHED      =         4.9958
 1-4 NB =         2.9159  1-4 EEL =         7.9876  VDWAALS    =       157.3715
 EELEC  =       712.5781  EHBOND  =         0.0000  RESTRAINT  =         0.0000
 ------------------------------------------------------------------------------
