-------------------------------------------------------
          Amber 16 PMEMD                              2016
          -------------------------------------------------------

  [-O]verwriting output

File Assignments:

 Here is the input file:

Stage 2 equilibration 1 0-5ns
 &cntrl
  imin=0, irest=1, ntx=5,
  nstlim=2500, dt=0.002,
  ntc=2, ntf=2,
  ntt=1, tautp=1.5,
  tempi=150.0, temp0=200.0,
  ntpr=50, ntwx=50,
  ntb=1,
  cut=10,
 /

Note: ig = -1. Setting random seed to   509880 based on wallclock time in
      microseconds.

--------------------------------------------------------------------------------
   1.  RESOURCE   USE:
--------------------------------------------------------------------------------

 getting box info from netcdf restart file
 NATOM  =   30759 NTYPES =      18 NBONH =   30024 MBONA  =     785
 NTHETH =     885 MTHETA =    1211 NPHIH =    1882 MPHIA  =    2433
 NHPARM =       0 NPARM  =       0 NNB   =   45590 NRES   =    9945
 NBONA  =     785 NTHETA =    1211 NPHIA =    2433 NUMBND =      73
 NUMANG =     152 NPTRA  =      87 NATYP =      37 NPHB   =       1
 IFBOX  =       2 NMXRS  =      35 IFCAP =       0 NEXTRA =       0
 NCOPY  =       0

     BOX TYPE: TRUNCATED OCTAHEDRON

--------------------------------------------------------------------------------
   2.  CONTROL  DATA  FOR  THE  RUN
--------------------------------------------------------------------------------

default_name

General flags:
     imin    =       0, nmropt  =       0

Nature and format of input:
     ntx     =       5, irest   =       1, ntrx    =       1

Nature and format of output:
     ntxo    =       2, ntpr    =      50, ntrx    =       1, ntwr    =    2500
     iwrap   =       0, ntwx    =      50, ntwv    =       0, ntwe    =       0
     ioutfm  =       1, ntwprt  =       0, idecomp =       0, rbornstat=      0

Potential function:
     ntf     =       2, ntb     =       1, igb     =       0, nsnb    =      25
     ipol    =       0, gbsa    =       0, iesp    =       0
     dielc   =   1.00000, cut     =  10.00000, intdiel =   1.00000

Frozen or restrained atoms:
     ibelly  =       0, ntr     =       0

Molecular dynamics:
     nstlim  =      2500, nscm    =      1000, nrespa  =         1
     t       =   0.00000, dt      =   0.00200, vlimit  =  -1.00000

Berendsen (weak-coupling) temperature regulation:
     temp0   = 200.00000, tempi   = 150.00000, tautp   =   1.50000

SHAKE:
     ntc     =       2, jfastw  =       0
     tol     =   0.00001

Ewald parameters:
     verbose =       0, ew_type =       0, nbflag  =       1, use_pme =       1
     vdwmeth =       1, eedmeth =       1, netfrc  =       1
     Box X =   76.982   Box Y =   76.982   Box Z =   76.982
     Alpha =  109.471   Beta  =  109.471   Gamma =  109.471
     NFFT1 =   80       NFFT2 =   80       NFFT3 =   80
     Cutoff=   10.000   Tol   =0.100E-04
     Ewald Coefficient =  0.27511
     Interpolation order =    4

--------------------------------------------------------------------------------
   3.  ATOMIC COORDINATES AND VELOCITIES
--------------------------------------------------------------------------------

default_name
 begin time read from input coords =    15.000 ps

 Number of triangulated 3-point waters found:     9880

     Sum of charges from parm topology file =   0.30810012
     Assuming uniform neutralizing plasma

--------------------------------------------------------------------------------
   4.  RESULTS
 NSTEP =       50   TIME(PS) =      15.100  TEMP(K) =   140.90  PRESS =     0.0
 Etot   =   -112437.4911  EKtot   =      8715.1328  EPtot      =   -121152.6239
 BOND   =       119.2479  ANGLE   =       294.9807  DIHED      =       865.4950
 1-4 NB =       292.2301  1-4 EEL =     -4441.9794  VDWAALS    =     19531.5730
 EELEC  =   -137814.1711  EHBOND  =         0.0000  RESTRAINT  =         0.0000
 ------------------------------------------------------------------------------

      A V E R A G E S   O V E R      50 S T E P S

 NSTEP =     2500   TIME(PS) =      20.000  TEMP(K) =   168.82  PRESS =     0.0
 Etot   =   -108607.4847  EKtot   =     10441.9643  EPtot      =   -119049.4490
 BOND   =       136.8479  ANGLE   =       339.5500  DIHED      =       869.6392
 1-4 NB =       287.4724  1-4 EEL =     -4433.7196  VDWAALS    =     18845.8770
 EELEC  =   -135095.1159  EHBOND  =         0.0000  RESTRAINT  =         0.0000
 ------------------------------------------------------------------------------

      R M S  F L U C T U A T I O N S

 NSTEP =     2500   TIME(PS) =      20.000  TEMP(K) =    12.97  PRESS =     0.0
 Etot   =      1810.9762  EKtot   =       802.2278  EPtot      =      1011.0798
 BOND   =        13.4880  ANGLE   =        19.6129  DIHED      =         8.8933
 1-4 NB =         5.0107  1-4 EEL =        14.6549  VDWAALS    =       445.6084
 EELEC  =      1408.5324  EHBOND  =         0.0000  RESTRAINT  =         0.0000
 ------------------------------------------------------------------------------
